/*--------------------------------*- C++ -*----------------------------------*\
| =========                 |                                                 |
| \\      /  F ield         | foam-extend: Open Source CFD                    |
|  \\    /   O peration     | Version:     4.0                                |
|   \\  /    A nd           | Web:         http://www.foam-extend.org         |
|    \\/     M anipulation  |                                                 |
\*---------------------------------------------------------------------------*/
FoamFile
{
    version     2.0;
    format      ascii;
    class       dictionary;
    location    "constant";
    object      dynamicMeshDict;
}
// * * * * * * * * * * * * * * * * * * * * * * * * * * * * * * * * * * * * * //

dynamicFvMesh   dynamicRefineFvMesh;

dynamicRefineFvMeshCoeffs
{
    refineInterval  1;
    field           liquidFraction;
    lowerRefineLevel 0.01;
    upperRefineLevel 0.99;
    unrefineLevel   3;
    nBufferLayers   1;
    maxRefinement   5;
    maxCells        100;
    correctFluxes
    (
      (liquidFraction none)
    );
    dumpLevel       true;
}


// ************************************************************************* //
