/*--------------------------------*- C++ -*----------------------------------*\
| =========                 |                                                 |
| \\      /  F ield         | OpenFOAM: The Open Source CFD Toolbox           |
|  \\    /   O peration     | Version:  v1906                                 |
|   \\  /    A nd           | Web:      www.OpenFOAM.com                      |
|    \\/     M anipulation  |                                                 |
\*---------------------------------------------------------------------------*/
FoamFile
{
    version     2.0;
    format      binary;
    class       dictionary;
    arch        "LSB;label=32;scalar=64";
    location    "constant";
    object      laserProperties;
}
// * * * * * * * * * * * * * * * * * * * * * * * * * * * * * * * * * * * * * //

laserPower      laserPower [ 1 2 -3 0 0 0 0 ] 120;

laserRadius     laserRadius [ 0 1 0 0 0 0 0 ] 3e-05;

laserSpeed      laserSpeed [ 0 1 -1 0 0 0 0 ] 0.5;

timeStop        timeStop [ 0 0 1 0 0 0 0 ] 100;

convertToMetersTemp convertToMetersTemp [ 0 1 0 0 0 0 0 ] 0.0001;

laserStrategy   ( ( 3 4 0 ) ( 18 4 0 ) ( 18 5 0 ) ( 3 5 0 ) ( 3 6 0 ) ( 18 6 0 ) ( 18 7 0 ) ( 3 7 0 ) );

laserStrategyVert ( ( 3 4 5 ) ( 18 4 5 ) ( 3 4 4.6 ) ( 18 4 4.6 ) ( 3 4 4.2 ) ( 18 4 4.2 ) ( 3 4 3.8 ) ( 18 4 3.8 ) ( 3 4 3.4 ) ( 18 4 3.4 ) );

laserStrategyFull ( ( 3 4 5 ) ( 18 4 5 ) ( 18 5 5 ) ( 3 5 5 ) ( 3 6 5 ) ( 18 6 5 ) ( 18 7 5 ) ( 3 7 5 ) ( 3 4 4.6 ) ( 18 4 4.6 ) ( 18 5 4.6 ) ( 3 5 4.6 ) ( 3 6 4.6 ) ( 18 6 4.6 ) ( 18 7 4.6 ) ( 3 7 4.6 ) ( 3 4 4.2 ) ( 18 4 4.2 ) ( 18 5 4.2 ) ( 3 5 4.2 ) ( 3 6 4.2 ) ( 18 6 4.2 ) ( 18 7 4.2 ) ( 3 7 4.2 ) ( 3 4 3.8 ) ( 18 4 3.8 ) ( 18 5 3.8 ) ( 3 5 3.8 ) ( 3 6 3.8 ) ( 18 6 3.8 ) ( 18 7 3.8 ) ( 3 7 3.8 ) ( 3 4 3.4 ) ( 18 4 3.4 ) ( 18 5 3.4 ) ( 3 5 3.4 ) ( 3 6 3.4 ) ( 18 6 3.4 ) ( 18 7 3.4 ) );

turnOnShift     turnOnShift [ 0 0 1 0 0 0 0 ] 0.006;

turnOnWidth     turnOnWidth [ 0 0 1 0 0 0 0 ] 0.006;

coolingTime     coolingTime [ 0 0 1 0 0 0 0 ] 0;

coordStart      coordStart [ 0 1 0 0 0 0 0 ] ( 0 0 0 );

hatchSpacing    hatchSpacing [ 0 1 0 0 0 0 0 ] 0.00025;

trackLength     lineLength [ 0 1 0 0 0 0 0 ] 0.0023;

lineAmount      lineAmount [ 0 0 0 0 0 0 0 ] 10;

strategyChoice  strategyChoice [ 0 0 0 0 0 0 0 ] 1;

a               -0.001;

b               -0.5;

c               1;

x0              0.00185;

x1              0.0014;


// ************************************************************************* //
