/*--------------------------------*- C++ -*----------------------------------*\
| =========                 |                                                 |
| \\      /  F ield         | foam-extend: Open Source CFD                    |
|  \\    /   O peration     | Version:     4.0                                |
|   \\  /    A nd           | Web:         http://www.foam-extend.org         |
|    \\/     M anipulation  |                                                 |
\*---------------------------------------------------------------------------*/
FoamFile
{
    version     2.0;
    format      binary;
    class       dictionary;
    location    "constant";
    object      laserProperties;
}
// * * * * * * * * * * * * * * * * * * * * * * * * * * * * * * * * * * * * * //

laserPower      laserPower [ 1 2 -3 0 0 0 0 ] 120;

laserRadius     laserRadius [ 0 1 0 0 0 0 0 ] 5.5e-05;

laserSpeed      laserSpeed [ 0 1 -1 0 0 0 0 ] 0.3;

coordStartX     coordStartX [ 0 1 0 0 0 0 0 ] 0.0002;

coordStartY     coordStartY [ 0 1 0 0 0 0 0 ] 0.0005;

coordStartZ     coordStartZ [ 0 1 0 0 0 0 0 ] 0;

timeStop        timeStop [ 0 0 1 0 0 0 0 ] 0.006;

convertToMetersTemp convertToMetersTemp [ 0 1 0 0 0 0 0 ] 0.0001;

laserStrategy   ( ( 3 5 0 ) ( 8 5 0 ) ( 8 5 0 ) ( 3 5 0 ) );


// ************************************************************************* //
