/*--------------------------------*- C++ -*----------------------------------*\
| =========                 |                                                 |
| \\      /  F ield         | foam-extend: Open Source CFD                    |
|  \\    /   O peration     | Version:     4.0                                |
|   \\  /    A nd           | Web:         http://www.foam-extend.org         |
|    \\/     M anipulation  |                                                 |
\*---------------------------------------------------------------------------*/
FoamFile
{
    version     2.0;
    format      ascii;
    class       dictionary;
    location    "constant";
    object      powderProperties;
}
// * * * * * * * * * * * * * * * * * * * * * * * * * * * * * * * * * * * * * //

initialPorosity initialPorosity [ 0 0 0 0 0 0 0 ] 0.4;

absorptivity    absorptivity [ 0 0 0 0 0 0 0 ] 0.3;

powderDepth     powderDepth [ 0 1 0 0 0 0 0 ] 4e-05;


// ************************************************************************* //
