/*--------------------------------*- C++ -*----------------------------------*\
| =========                 |                                                 |
| \\      /  F ield         | OpenFOAM: The Open Source CFD Toolbox           |
|  \\    /   O peration     | Version:  v1906                                 |
|   \\  /    A nd           | Web:      www.OpenFOAM.com                      |
|    \\/     M anipulation  |                                                 |
\*---------------------------------------------------------------------------*/
FoamFile
{
    version     2.0;
    format      ascii;
    class       dictionary;
    location    "constant";
    object      powerStrategy1;
}
// * * * * * * * * * * * * * * * * * * * * * * * * * * * * * * * * * * * * * //

powerStrategy (
  120
120
120
120
120
120
120
120
120
120
120
120
120
120
120
120
120
120
120
120
120
120
120
120
120
120
120
120
120
120
120
120
120
120
120
120
120
120
120
120
120
120
120
120
120
120
120
120
120
120
120
120
120
120
120
120
120
120
120
120
120
120
120
120
120
120
120
120
120
108
87.48
70.8588
70.8588
63.7729
63.7729
63.7729
77.1652
92.4362
92.4362
92.4362
92.4362
93.3699
93.3699
93.3699
93.3699
93.3699
93.3699
93.3699
99.6564
99.6564
99.6564
99.6564
100.663
100.663
100.663
100.663
100.663
100.663
100.663
102.707
102.707
102.707
102.707
102.707
109.622
109.622
109.622
109.622
109.622
109.622
109.622
109.622
109.622
109.622
109.622
109.622
109.622
109.622
109.622
109.622
109.622
110.729
110.729
110.729
110.729
110.729
110.729
110.729
111.848
111.848
111.848
111.848
120
120
120
120
120
97.2
97.2
78.732
70.8588
70.8588
70.8588
70.8588
70.8588
70.8588
70.8588
92.4362
92.4362
92.4362
92.4362
93.3699
93.3699
93.3699
93.3699
93.3699
93.3699
93.3699
93.3699
93.3699
93.3699
93.3699
93.3699
93.3699
99.6564
99.6564
99.6564
99.6564
100.663
100.663
100.663
100.663
100.663
100.663
100.663
100.663
100.663
100.663
102.707
102.707
102.707
102.707
102.707
102.707
102.707
102.707
103.744
103.744
109.622
109.622
109.622
109.622
109.622
109.622
109.622
109.622
109.622
110.729
110.729
110.729
110.729
110.729
110.729
111.848
111.848
111.848
111.848
98.6599
79.9145
64.7307
64.7307
64.7307
64.7307
64.7307
64.7307
85.295
85.295
85.295
85.295
86.1566
86.1566
86.1566
86.1566
92.8863
92.8863
92.8863
92.8863
92.8863
92.8863
94.7723
94.7723
94.7723
94.7723
94.7723
94.7723
101.153
101.153
101.153
101.153
102.175
102.175
102.175
102.175
102.175
102.175
102.175
102.175
102.175
102.175
102.175
102.175
102.175
102.175
102.175
102.175
102.175
102.175
102.175
102.175
102.175
103.207
103.207
103.207
103.207
103.207
111.269
111.269
111.269
111.269
111.269
111.269
111.269
112.392
112.392
112.392
112.392
100.142
73.0033
73.0033
59.1326
59.1326
59.1326
59.1326
86.5761
86.5761
86.5761
86.5761
86.5761
86.5761
86.5761
86.5761
86.5761
86.5761
86.5761
86.5761
86.5761
94.2814
94.2814
94.2814
94.2814
94.2814
95.2337
95.2337
95.2337
95.2337
95.2337
95.2337
95.2337
95.2337
95.2337
95.2337
95.2337
95.2337
95.2337
95.2337
95.2337
95.2337
95.2337
95.2337
103.71
103.71
103.71
103.71
103.71
103.71
103.71
103.71
103.71
103.71
103.71
103.71
103.71
103.71
103.71
103.71
103.71
103.71
103.71
103.71
103.71
103.71
104.757
104.757
104.757
104.757
93.3386
75.6042
55.1155
55.1155
55.1155
55.1155
80.6946
80.6946
80.6946
80.6946
88.764
88.764
88.764
88.764
88.764
88.764
88.764
88.764
88.764
88.764
88.764
88.764
88.764
96.664
96.664
96.664
96.664
96.664
97.6404
97.6404
97.6404
97.6404
97.6404
97.6404
97.6404
97.6404
97.6404
97.6404
97.6404
97.6404
97.6404
97.6404
97.6404
97.6404
97.6404
97.6404
97.6404
97.6404
97.6404
97.6404
97.6404
105.267
105.267
105.267
105.267
105.267
105.267
105.267
105.267
105.267
107.404
107.404
107.404
107.404
107.404
116.963
116.963
116.963
85.2664
69.0658
69.0658
55.9433
55.9433
55.9433
61.5376
81.9066
81.9066
81.9066
89.1962
89.1962
89.1962
90.0972
90.0972
90.0972
90.0972
90.0972
90.0972
90.0972
90.0972
90.0972
90.0972
90.0972
90.0972
90.0972
90.0972
90.0972
90.0972
97.1347
97.1347
97.1347
97.1347
97.1347
97.1347
97.1347
98.1159
98.1159
98.1159
98.1159
99.1069
99.1069
99.1069
99.1069
99.1069
99.1069
99.1069
99.1069
106.848
106.848
106.848
106.848
106.848
106.848
106.848
106.848
106.848
106.848
106.848
106.848
106.848
106.848
107.927
107.927
107.927
107.927
96.1634
96.1634
86.547
70.1031
56.7835
56.7835
56.7835
56.7835
68.708
75.5788
82.3054
82.3054
82.3054
82.3054
83.1367
83.1367
83.1367
83.1367
89.6305
89.6305
89.6305
89.6305
89.6305
89.6305
90.5359
91.4504
91.4504
91.4504
91.4504
91.4504
91.4504
97.6076
97.6076
97.6076
97.6076
98.5936
98.5936
98.5936
98.5936
98.5936
98.5936
98.5936
98.5936
98.5936
98.5936
98.5936
98.5936
98.5936
98.5936
98.5936
98.5936
98.5936
98.5936
99.5895
99.5895
99.5895
99.5895
99.5895
107.368
107.368
108.453
108.453
108.453
108.453
108.453
108.453
118.105
118.105
118.105
95.6653
86.0987
62.766
62.766
62.766
62.766
62.766
62.766
81.879
81.879
81.879
81.879
81.879
83.5415
83.5415
83.5415
83.5415
83.5415
89.1663
89.1663
89.1663
89.1663
89.1663
90.9767
90.9767
97.1021
97.1021
97.1021
97.1021
97.1021
97.1021
97.1021
97.1021
97.1021
97.1021
98.0829
98.0829
98.0829
98.0829
99.0736
99.0736
99.0736
99.0736
99.0736
99.0736
99.0736
101.085
101.085
107.891
107.891
107.891
117.493
);

// ************************************************************************* //
