/*--------------------------------*- C++ -*----------------------------------*\
| =========                 |                                                 |
| \\      /  F ield         | foam-extend: Open Source CFD                    |
|  \\    /   O peration     | Version:     4.0                                |
|   \\  /    A nd           | Web:         http://www.foam-extend.org         |
|    \\/     M anipulation  |                                                 |
\*---------------------------------------------------------------------------*/
FoamFile
{
    version     2.0;
    format      binary;
    class       dictionary;
    location    "constant";
    object      systemProperties;
}
// * * * * * * * * * * * * * * * * * * * * * * * * * * * * * * * * * * * * * //

turnOnDebug     turnOnDebug [ 0 0 0 0 0 0 0 ] 1;

thermalOn       thermalOn [ 0 0 0 0 0 0 0 ] 1;

mechanicalOn    mechanicalOn [ 0 0 0 0 0 0 0 ] 0;

adaptiveOn      adaptiveOn [ 0 0 0 0 0 0 0 ] 0;

youngDependence youngDependence [ 0 0 0 0 0 0 0 ] 0;

smootherAirFactor smootherAirFactor [ 0 0 0 0 0 0 0 ] 100000;

smootherPorosityFactor smootherPorosityFactor [ 0 0 0 0 0 0 0 ] 10000;

multiLayer      multiLayer [ 0 0 0 0 0 0 0 ] 1;

temporal1       temporal1 [ 0 0 0 0 0 0 0 ] 0;

temporal2       temporal2 [ 0 0 0 0 0 0 0 ] 0;

temporal3       temporal3 [ 0 0 0 0 0 0 0 ] 0;


// ************************************************************************* //
