/*--------------------------------*- C++ -*----------------------------------*\
| =========                 |                                                 |
| \\      /  F ield         | foam-extend: Open Source CFD                    |
|  \\    /   O peration     | Version:     4.0                                |
|   \\  /    A nd           | Web:         http://www.foam-extend.org         |
|    \\/     M anipulation  |                                                 |
\*---------------------------------------------------------------------------*/
FoamFile
{
    version     2.0;
    format      ascii;
    class       dictionary;
    location    "constant";
    object      thermalProperties;
}
// * * * * * * * * * * * * * * * * * * * * * * * * * * * * * * * * * * * * * //

rho0        rho0        [ 1 -3 0 0 0 0 0 ] 7883;

T0          T0          [ 0 0 0 1 0 0 0 ] 273;

k_sol       k_sol       [ 1 1 -3 -1 0 0 0 ] 13;//3;

dk_sol      dk_sol      [ 1 1 -3 -2 0 0 0 ] 0.1;//5e-4;

k_liq       k_liq       [ 1 1 -3 -1 0 0 0 ] 17;//5e-4;

dk_liq      dk_liq      [ 1 1 -3 -2 0 0 0 ] 0.2;

Cp_sol      Cp_sol      [ 0 2 -2 -1 0 0 0 ] 540;//3;

dCp_sol     dCp_sol     [ 0 2 -2 -2 0 0 0 ] 2;//3;

Cp_liq      Cp_liq      [ 0 2 -2 -1 0 0 0 ] 560;//3;

dCp_liq     dCp_liq     [ 0 2 -2 -2 0 0 0 ] 3;//3;

T_solidus   T_solidus   [ 0 0 0 1 0 0 0 ]   1648;

T_liquidus  T_liquidus  [ 0 0 0 1 0 0 0 ]   1673;

enthalpyFusion enthalpyFusion [ 0 2 -2 0 0 0 0 ] 260000;

// ************************************************************************* //
