/*--------------------------------*- C++ -*----------------------------------*\
| =========                 |                                                 |
| \\      /  F ield         | foam-extend: Open Source CFD                    |
|  \\    /   O peration     | Version:     4.0                                |
|   \\  /    A nd           | Web:         http://www.foam-extend.org         |
|    \\/     M anipulation  |                                                 |
\*---------------------------------------------------------------------------*/
FoamFile
{
    version     2.0;
    format      ascii;
    class       dictionary;
    object      blockMeshDict;
}
// * * * * * * * * * * * * * * * * * * * * * * * * * * * * * * * * * * * * * //

convertToMeters 1e-4;

vertices
(
    (0 0 0)
    (20 0 0)
    (20 10 0)
    (0 10 0)

    (0 0 2)
    (20 0 2)
    (20 10 2)
    (0 10 2)

);

blocks
(
    hex (0 1 2 3 4 5 6 7) (80 50 10) simpleGrading (1 1 1)
);

edges
(
);

boundary
(
    allfaces
    {
        type wall;
        faces
        (
            (0 1 2 3)
            (4 5 6 7)
            (1 2 6 5)
            (3 7 4 0)
            (0 1 5 4)
            (3 2 6 7)
        );
    }
);

mergePatchPairs
(
);


// ************************************************************************* //
