/*--------------------------------*- C++ -*----------------------------------*\
| =========                 |                                                 |
| \\      /  F ield         | foam-extend: Open Source CFD                    |
|  \\    /   O peration     | Version:     4.0                                |
|   \\  /    A nd           | Web:         http://www.foam-extend.org         |
|    \\/     M anipulation  |                                                 |
\*---------------------------------------------------------------------------*/
FoamFile
{
    version     2.0;
    format      binary;
    class       polyBoundaryMesh;
    location    "constant/polyMesh";
    object      boundary;
}
// * * * * * * * * * * * * * * * * * * * * * * * * * * * * * * * * * * * * * //

6
(
    bottom
    {
        type            wall;
        nFaces          8100;
        startFace       1463220;
    }
    top
    {
        type            wall;
        nFaces          8100;
        startFace       1471320;
    }
    left
    {
        type            wall;
        nFaces          5490;
        startFace       1479420;
    }
    right
    {
        type            wall;
        nFaces          5490;
        startFace       1484910;
    }
    up
    {
        type            wall;
        nFaces          5490;
        startFace       1490400;
    }
    down
    {
        type            wall;
        nFaces          5490;
        startFace       1495890;
    }
)


// ************************************************************************* //
