/*--------------------------------*- C++ -*----------------------------------*\
| =========                 |                                                 |
| \\      /  F ield         | foam-extend: Open Source CFD                    |
|  \\    /   O peration     | Version:     4.0                                |
|   \\  /    A nd           | Web:         http://www.foam-extend.org         |
|    \\/     M anipulation  |                                                 |
\*---------------------------------------------------------------------------*/
FoamFile
{
    version     2.0;
    format      ascii;
    class       dictionary;
    object      blockMeshDict;
}
// * * * * * * * * * * * * * * * * * * * * * * * * * * * * * * * * * * * * * //

convertToMeters 1;

vertices
(
    (0 0 0)
    (20 0 0)
    (20 5 0)
    (0 5 0)

    (0 0 10)
    (20 0 10)
    (20 5 10)
    (0 5 10)

    (0 10 0)
    (20 10 0)
    (20 10 10)
    (0 10 10)
);

blocks
(
    hex (0 1 2 3 4 5 6 7) (100 25 50) simpleGrading (1 1 1)
    hex (3 2 9 8 7 6 10 11) (100 25 50) simpleGrading (1 1 1)
);

edges
(
);

boundary
(
    allfaces
    {
        type wall;
        faces
        (
            (0 1 2 3)
            (3 2 9 8)
            (4 5 6 7)
            (7 6 10 11)
            (1 2 6 5)
            (2 9 10 6)
            (3 7 4 0)
            (8 11 7 3)
            (0 1 5 4)
            (8 9 10 11)
        );
    }
);

mergePatchPairs
(
);


// ************************************************************************* //
