/*--------------------------------*- C++ -*----------------------------------*\
| =========                 |                                                 |
| \\      /  F ield         | foam-extend: Open Source CFD                    |
|  \\    /   O peration     | Version:     4.0                                |
|   \\  /    A nd           | Web:         http://www.foam-extend.org         |
|    \\/     M anipulation  |                                                 |
\*---------------------------------------------------------------------------*/
FoamFile
{
    version     2.0;
    format      ascii;
    class       dictionary;
    object      blockMeshDict;
}
// * * * * * * * * * * * * * * * * * * * * * * * * * * * * * * * * * * * * * //

convertToMeters 1e-4;

vertices
(
    (0 0 0) //0
    (5 0 0) //1
    (5 2.5 0) //2
    (0 2.5 0) //3

    (0 0 6) //4
    (5 0 6) //5
    (5 2.5 6) //6
    (0 2.5 6) //7

    (5 5 0) //8
    (0 5 0) //9

    (5 5 6) //10
    (0 5 6) //11

);

blocks
(
    hex (0 1 2 3 4 5 6 7) (80 40 40) simpleGrading (1 0.1 20)
    hex (3 2 8 9 7 6 10 11) (80 40 40) simpleGrading (1 10 20)
);
// (1 0.1 10) (1 10 10)
// hex (0 1 2 3 4 5 6 7) (80 40 40) simpleGrading (1 0.1 10)
// hex (3 2 8 9 7 6 10 11) (80 40 40) simpleGrading (1 10 10)
edges
(
);

boundary
(
    // allfaces
    // {
    //     type wall;
    //     faces
    //     (
    //         (0 1 2 3)
    //         (4 5 6 7)
    //         (1 2 6 5)
    //         (3 7 4 0)
    //         (0 1 5 4)
    //         (3 2 6 7)
    //     );
    // }

    noback
    {
        type wall;
        faces
        (
            (0 1 2 3)
            (1 2 6 5)
            (3 7 4 0)
            (0 1 5 4)
            (3 2 8 9)
            (9 8 10 11)
            (2 8 10 6)
            (9 11 7 3)
        );
    }

    back
    {
        type wall;
        faces
        (
            (4 5 6 7)
            (7 6 10 11)
        );
    }
);

mergePatchPairs
(
);


// ************************************************************************* //
