/*--------------------------------*- C++ -*----------------------------------*\
| =========                 |                                                 |
| \\      /  F ield         | foam-extend: Open Source CFD                    |
|  \\    /   O peration     | Version:     4.0                                |
|   \\  /    A nd           | Web:         http://www.foam-extend.org         |
|    \\/     M anipulation  |                                                 |
\*---------------------------------------------------------------------------*/
FoamFile
{
    version     2.0;
    format      ascii;
    class       dictionary;
    object      controlDict;
}
// * * * * * * * * * * * * * * * * * * * * * * * * * * * * * * * * * * * * * //

application     HeatTransferFoamI;

startFrom       startTime;

startTime       0;

stopAt          endTime;

endTime         0.002;

deltaT          0.00001;

writeControl    timeStep;
// writeControl    adjustableRunTime;

writeInterval   1;

purgeWrite      0;

writeFormat     ascii;
// writeFormat     binary;

writePrecision  6;

writeCompression uncompressed;

timeFormat      general;

timePrecision   6;

runTimeModifiable yes;


// ************************************************************************* //
