/*--------------------------------*- C++ -*----------------------------------*\
| =========                 |                                                 |
| \\      /  F ield         | foam-extend: Open Source CFD                    |
|  \\    /   O peration     | Version:     4.0                                |
|   \\  /    A nd           | Web:         http://www.foam-extend.org         |
|    \\/     M anipulation  |                                                 |
\*---------------------------------------------------------------------------*/
FoamFile
{
    version     2.0;
    format      ascii;
    class       dictionary;
    object      fvSolution;
}
// * * * * * * * * * * * * * * * * * * * * * * * * * * * * * * * * * * * * * //

solvers
{
    T
    {
        solver          PCG;
        preconditioner  DIC;
        tolerance       1e-06;
        smoother        DICGaussSeidel;
        relTol          0;
    }

    he
    {
        solver          PCG;
        preconditioner  diagonal;
        tolerance       1e-05;
        relTol          0;
    }


    stressAnalysis
    {
        compactNormalStress yes;
        nCorrectors     1;
        DU               1e-06;
    }


// DU
// {
// solver GAMG;
// tolerance 1e-04;
// relTol 0.1;
// smoother GaussSeidel;
// cacheAgglomeration true;
// nCellsInCoarsestLevel 10;
// agglomerator faceAreaPair;
// mergeLevels 2;
// }

 // The three components ofthe displacement in the mechanical equations are
 //  solved coupled usinga DILU preconditioned, stabilized bi-conjugate gradient solver.
 // Multi-scale computational modeling of residual stress in selective lasermelting with uncertainty quantification
    DU
    {
        solver          PBiCGStab; //PCG
        preconditioner  DIC; //DIC

        maxIter         3000;
        tolerance       1e-05;
        relTol          0.1;
        // minIter 1;
        smoother        DICGaussSeidel;
        // cacheAgglomeration true;
        // nCellsInCoarsestLevel 15;
        // agglomerator    faceAreaPair;
        // mergeLevels     3;
    }

    pcorr
    {
        solver           BiCGStab;
        preconditioner   DILU;

        minIter          0;
        maxIter          1000;
        tolerance        1e-02;
        relTol           0;
    };

    p
    {
        solver           CG;
        preconditioner   Cholesky;

        minIter          0;
        maxIter          1000;
        tolerance        1e-07;
        relTol           0.0;
    };

    pFinal
    {
        solver           CG;
        preconditioner   Cholesky;

        minIter          0;
        maxIter          1000;
        tolerance        1e-07;
        relTol           0;
    };

    Umesh
    {
        solver            BiCGStab;
        preconditioner    DILU;

        minIter          0;
        maxIter          1000;
        tolerance        1e-07;
        relTol           0;
    };
}


PISO
{
    nCorrectors     4;
    nNonOrthogonalCorrectors 0;

    pRefCell        0;
    pRefValue       0;
}

solidMechanics
{
    nCorrectors           250;
    DU                    1e-03;
    divSigmaExp           standard;
    //divSigmaExp           standard;
    //divSigmaExp           surface;
    //divSigmaExp           decompose;
    //divSigmaExp           laplacian;
    historyPatch          right; //none
    solidInterfaceMethod  none;
    predictor             no;
    infoFrequency         1;
    aitkenRelaxation      no;
    largeStrainOverRelax  yes; //no
    nonLinearSemiImplicit no; //no
    divSigmaNonLinExp     standard;
}

relaxationFactors
{
  DU   1;
  // DEpsilonP 0.5;
}


// ************************************************************************* //
