/*--------------------------------*- C++ -*----------------------------------*\
| =========                 |                                                 |
| \\      /  F ield         | foam-extend: Open Source CFD                    |
|  \\    /   O peration     | Version:     4.0                                |
|   \\  /    A nd           | Web:         http://www.foam-extend.org         |
|    \\/     M anipulation  |                                                 |
\*---------------------------------------------------------------------------*/
FoamFile
{
    version     2.0;
    format      ascii;
    class       dictionary;
    object      fvSolution;
}
// * * * * * * * * * * * * * * * * * * * * * * * * * * * * * * * * * * * * * //

solvers
{
    T
    {
        solver          PCG;
        preconditioner  DIC;
        tolerance       1e-06;
        relTol          0;
    }

    he
    {
        solver          BiCGStab;
        preconditioner  DILU;
        tolerance       1e-05;
        relTol          0;
    }

    DU
    {
        solver          PCG; //PCG
        preconditioner  DIC; //DIC

        tolerance       1e-07;
        relTol          0.1;
    }

    pcorr
    {
        solver           BiCGStab;
        preconditioner   DILU;

        minIter          0;
        maxIter          1000;
        tolerance        1e-02;
        relTol           0;
    };

    p
    {
        solver           CG;
        preconditioner   Cholesky;

        minIter          0;
        maxIter          1000;
        tolerance        1e-07;
        relTol           0.0;
    };

    pFinal
    {
        solver           CG;
        preconditioner   Cholesky;

        minIter          0;
        maxIter          1000;
        tolerance        1e-07;
        relTol           0;
    };

    Umesh
    {
        solver            BiCGStab;
        preconditioner    DILU;

        minIter          0;
        maxIter          1000;
        tolerance        1e-07;
        relTol           0;
    };
}


PISO
{
    nCorrectors     4;
    nNonOrthogonalCorrectors 0;

    pRefCell        0;
    pRefValue       0;
}

solidMechanics
{
    nCorrectors           300;
    DU                    1e-03;
    divSigmaExp           standard;
    // divSigmaExp           surface;
    //divSigmaExp           decompose;
    //divSigmaExp           laplacian;
    historyPatch          right;
    solidInterfaceMethod  none;
    predictor             yes;
    infoFrequency         1;
    aitkenRelaxation      yes;
}

relaxationFactors
{
  DU   0.9;
  DEpsilonP 0.1;
}


// ************************************************************************* //
